data_image0
_chemical_formula_structural       Zn8O26C48H24
_chemical_formula_sum              "Zn8 O26 C48 H24"
_cell_length_a       18.432910090604665
_cell_length_b       18.43291002389407
_cell_length_c       18.4329100692507
_cell_angle_alpha    59.99999945184838
_cell_angle_beta     59.999999137416495
_cell_angle_gamma    59.99999938904139

_space_group_name_H-M_alt    "P 1"
_space_group_IT_number       1

loop_
  _space_group_symop_operation_xyz
  'x, y, z'

loop_
  _atom_site_type_symbol
  _atom_site_label
  _atom_site_symmetry_multiplicity
  _atom_site_fract_x
  _atom_site_fract_y
  _atom_site_fract_z
  _atom_site_occupancy
  Zn  Zn1       1.0  0.29350874385489595  0.11947385066941342  0.293508743606392  1.0000
  Zn  Zn2       1.0  0.2935087424218497  0.29350874364516244  0.11947385144347782  1.0000
  Zn  Zn3       1.0  0.11947385130500127  0.2935087438840713  0.29350874222486256  1.0000
  Zn  Zn4       1.0  0.7064912561590508  0.8805261493748593  0.7064912563319345  1.0000
  Zn  Zn5       1.0  0.7064912764784456  0.7064912775683637  0.7064912744901716  1.0000
  Zn  Zn6       1.0  0.8805261490876196  0.7064912560427522  0.7064912575978958  1.0000
  Zn  Zn7       1.0  0.29350872363418695  0.29350872251742255  0.29350872557086066  1.0000
  Zn  Zn8       1.0  0.7064912578100558  0.7064912564201087  0.8805261482049132  1.0000
  O   O1        1.0  0.250000021272477  0.2500000218391334  0.25000002205225047  1.0000
  O   O2        1.0  0.19496983881782487  0.07143231252842956  0.36679895787392686  1.0000
  O   O3        1.0  0.36679895850255256  0.194969838873181  0.07143231292443573  1.0000
  O   O4        1.0  0.0714323116619285  0.36679895725987527  0.19496983985677452  1.0000
  O   O5        1.0  0.749999978970701  0.7499999782226693  0.7499999777186527  1.0000
  O   O6        1.0  0.8050301608311785  0.9285676878086356  0.6332010420331008  1.0000
  O   O7        1.0  0.633201053634562  0.8050301761142806  0.6332010563182074  1.0000
  O   O8        1.0  0.9285677590264474  0.6332010480147935  0.6332010465949564  1.0000
  O   O9        1.0  0.3667989531356649  0.3667989524929904  0.07143224093624961  1.0000
  O   O10       1.0  0.3667989575062717  0.07143231361497626  0.19496983835207785  1.0000
  O   O11       1.0  0.3667989462683908  0.1949698239053896  0.3667989437947892  1.0000
  O   O12       1.0  0.6332010468233134  0.6332010476614611  0.9285677591086811  1.0000
  O   O13       1.0  0.9285676882450897  0.6332010426343263  0.8050301602814951  1.0000
  O   O14       1.0  0.8050301762697771  0.6332010549789433  0.6332010561740631  1.0000
  O   O15       1.0  0.19496982345863603  0.3667989453027526  0.3667989436067579  1.0000
  O   O16       1.0  0.366798952929201  0.07143224015407497  0.3667989538521124  1.0000
  O   O17       1.0  0.07143231187977032  0.19496984029110292  0.36679895758250275  1.0000
  O   O18       1.0  0.633201042530618  0.9285676864944878  0.8050301614207547  1.0000
  O   O19       1.0  0.9285676879617694  0.8050301600745622  0.6332010418952071  1.0000
  O   O20       1.0  0.8050301611027022  0.6332010416464406  0.9285676878268766  1.0000
  O   O21       1.0  0.19496983895191364  0.3667989582573105  0.07143231215049975  1.0000
  O   O22       1.0  0.36679894437928806  0.36679894390479256  0.19496982428341286  1.0000
  O   O23       1.0  0.07143224092337169  0.36679895167552495  0.36679895351717673  1.0000
  O   O24       1.0  0.6332010469823582  0.9285677598234438  0.6332010461737102  1.0000
  O   O25       1.0  0.6332010415134954  0.8050301613389591  0.9285676868646761  1.0000
  O   O26       1.0  0.633201055904989  0.6332010560886812  0.805030175579273  1.0000
  C   C1        1.0  0.11103274574894126  0.11103274386439817  0.38896727766709677  1.0000
  C   C2        1.0  0.05365341535496598  0.05365341634926016  0.4463465877755384  1.0000
  C   C3        1.0  0.09249063777519793  0.9608414608746427  0.4733339517074274  1.0000
  C   C4        1.0  0.38896727700722095  0.11103274602800686  0.11103274535606494  1.0000
  C   C5        1.0  0.4463465876206047  0.05365341593072304  0.053653415972500264  1.0000
  C   C6        1.0  0.47333395171320697  0.09249063715703876  0.9608414610832404  1.0000
  C   C7        1.0  0.11103274495483889  0.3889672782202345  0.11103274331621202  1.0000
  C   C8        1.0  0.05365341542231742  0.44634658793904963  0.053653415874767685  1.0000
  C   C9        1.0  0.9608414609301218  0.47333395127220657  0.09249063826303668  1.0000
  C   C10       1.0  0.8889672546020828  0.8889672558773963  0.6110327220983875  1.0000
  C   C11       1.0  0.9463465845729122  0.9463465837877932  0.5536534121699718  1.0000
  C   C12       1.0  0.907509362255928  0.03915853927550587  0.5266660482143353  1.0000
  C   C13       1.0  0.6110327373918198  0.8889673016189408  0.6110327381249762  1.0000
  C   C14       1.0  0.553653412252063  0.9463465876909317  0.5536534125840652  1.0000
  C   C15       1.0  0.5266660529242764  0.9075093694103575  0.5266660532323075  1.0000
  C   C16       1.0  0.8889673005802965  0.611032738434938  0.6110327384963218  1.0000
  C   C17       1.0  0.9463465876078324  0.5536534127721235  0.5536534130188363  1.0000
  C   C18       1.0  0.03915854902980889  0.5266660445603107  0.5266660447663263  1.0000
  C   C19       1.0  0.3889672614636824  0.38896726114625  0.11103269909043068  1.0000
  C   C20       1.0  0.44634658765732554  0.44634658768824914  0.0536534121298915  1.0000
  C   C21       1.0  0.47333395456534105  0.47333395482054125  0.9608414514487316  1.0000
  C   C22       1.0  0.4733339517199251  0.9608414612909285  0.09249063720367738  1.0000
  C   C23       1.0  0.3889672624667585  0.11103269825652301  0.38896726198806386  1.0000
  C   C24       1.0  0.4463465875046803  0.053653412219247944  0.44634658760443463  1.0000
  C   C25       1.0  0.47333394686851527  0.0924906304205603  0.47333394697262327  1.0000
  C   C26       1.0  0.6110327385910062  0.6110327388493998  0.8889673011128398  1.0000
  C   C27       1.0  0.5536534124547279  0.5536534123655505  0.946346587884864  1.0000
  C   C28       1.0  0.526666045485912  0.526666045209599  0.03915854860383444  1.0000
  C   C29       1.0  0.8889672549520057  0.6110327218061352  0.8889672566500608  1.0000
  C   C30       1.0  0.9463465844739383  0.5536534121220591  0.9463465842057933  1.0000
  C   C31       1.0  0.03915853896314533  0.5266660488337509  0.9075093617526009  1.0000
  C   C32       1.0  0.9075093703443535  0.5266660528246296  0.5266660528595963  1.0000
  C   C33       1.0  0.11103269977168843  0.38896726151745364  0.3889672614741007  1.0000
  C   C34       1.0  0.05365341238154776  0.4463465871473963  0.4463465870556743  1.0000
  C   C35       1.0  0.09249062982287523  0.473333947044248  0.4733339471299731  1.0000
  C   C36       1.0  0.47333395492407554  0.9608414503104431  0.4733339552292591  1.0000
  C   C37       1.0  0.9608414614184855  0.09249063721269721  0.4733339515235427  1.0000
  C   C38       1.0  0.6110327229889974  0.888967253631036  0.888967254933651  1.0000
  C   C39       1.0  0.5536534123492337  0.9463465840053045  0.9463465840044097  1.0000
  C   C40       1.0  0.5266660482712948  0.039158538618861496  0.9075093628360031  1.0000
  C   C41       1.0  0.03915853864228512  0.9075093627641146  0.5266660484899129  1.0000
  C   C42       1.0  0.9075093613576267  0.5266660487214888  0.039158539390422936  1.0000
  C   C43       1.0  0.0924906383811205  0.4733339514351281  0.9608414607175446  1.0000
  C   C44       1.0  0.473333946476522  0.4733339462563043  0.09249063038316167  1.0000
  C   C45       1.0  0.9608414511063061  0.4733339553539101  0.47333395528633443  1.0000
  C   C46       1.0  0.5266660448220856  0.03915854956265769  0.5266660449515561  1.0000
  C   C47       1.0  0.5266660483320883  0.9075093626154851  0.03915853898317291  1.0000
  C   C48       1.0  0.5266660535796555  0.5266660537513816  0.9075093697054326  1.0000
  H   H1        1.0  0.1646249628750384  0.931676499169006  0.45184927089979865  1.0000
  H   H2        1.0  0.45184927085589754  0.16462496218016365  0.9316765000587754  1.0000
  H   H3        1.0  0.931676498924642  0.45184927090959887  0.16462496299060847  1.0000
  H   H4        1.0  0.8353750370739165  0.06832350088372391  0.5481507290084812  1.0000
  H   H5        1.0  0.5481507267026543  0.8353750464243161  0.5481507268982659  1.0000
  H   H6        1.0  0.06832349894750428  0.548150724659573  0.5481507245866524  1.0000
  H   H7        1.0  0.45184927571189226  0.4518492757218844  0.9316764997102719  1.0000
  H   H8        1.0  0.45184927086021753  0.9316765000644018  0.16462496223187068  1.0000
  H   H9        1.0  0.45184927314921947  0.1646249534926621  0.45184927317737295  1.0000
  H   H10       1.0  0.5481507244098495  0.5481507243013887  0.06832350036848303  1.0000
  H   H11       1.0  0.06832350090732436  0.5481507290798907  0.8353750371567167  1.0000
  H   H12       1.0  0.8353750478325168  0.5481507269846646  0.5481507271204269  1.0000
  H   H13       1.0  0.16462495220426573  0.45184927299863825  0.4518492728910378  1.0000
  H   H14       1.0  0.4518492755168938  0.9316764993484997  0.4518492757502247  1.0000
  H   H15       1.0  0.9316764991102543  0.1646249632240022  0.45184927080822623  1.0000
  H   H16       1.0  0.548150729347875  0.0683234998394928  0.8353750378223764  1.0000
  H   H17       1.0  0.0683235008804222  0.8353750368597229  0.5481507292331808  1.0000
  H   H18       1.0  0.835375037143067  0.548150729032751  0.06832350102757695  1.0000
  H   H19       1.0  0.16462496273319388  0.45184927114625817  0.9316764990002823  1.0000
  H   H20       1.0  0.4518492730007077  0.4518492730283707  0.16462495327474802  1.0000
  H   H21       1.0  0.9316765011542082  0.45184927540782094  0.45184927534445435  1.0000
  H   H22       1.0  0.5481507242934419  0.06832350050998996  0.5481507243550918  1.0000
  H   H23       1.0  0.54815072921536  0.8353750377139673  0.06832349998150242  1.0000
  H   H24       1.0  0.5481507270326198  0.5481507270306529  0.8353750467374119  1.0000
